
 OpenBabel02262515533D

  3  2  0  0  0  0  0  0  0  0999 V2000
    0.0000    0.0000    0.0000 O   0  0  0  0  0  0  0  0  0  0  0  0
    0.7581   -0.5890    0.0000 H   0  0  0  0  0  0  0  0  0  0  0  0
   -0.7581   -0.5890    0.0000 H   0  0  0  0  0  0  0  0  0  0  0  0
  1  2  1  0  0  0  0
  1  3  1  0  0  0  0
M  END
