
 OpenBabel02262515533D

  8  7  0  0  0  0  0  0  0  0999 V2000
    0.0000    0.0000    0.0000 C   0  0  0  0  0  0  0  0  0  0  0  0
    1.5400    0.0000    0.0000 C   0  0  0  0  0  0  0  0  0  0  0  0
   -0.3922    0.0000   -1.0170 H   0  0  0  0  0  0  0  0  0  0  0  0
   -0.3922    0.8807    0.5085 H   0  0  0  0  0  0  0  0  0  0  0  0
   -0.3922   -0.8807    0.5085 H   0  0  0  0  0  0  0  0  0  0  0  0
    1.9322   -0.6794   -0.7568 H   0  0  0  0  0  0  0  0  0  0  0  0
    1.9322   -0.3157    0.9668 H   0  0  0  0  0  0  0  0  0  0  0  0
    1.9322    0.9951   -0.2100 H   0  0  0  0  0  0  0  0  0  0  0  0
  1  2  1  0  0  0  0
  1  5  1  0  0  0  0
  1  4  1  0  0  0  0
  2  7  1  0  0  0  0
  3  1  1  0  0  0  0
  6  2  1  0  0  0  0
  8  2  1  0  0  0  0
M  END
