
 OpenBabel02262515533D

 17 16  0  0  0  0  0  0  0  0999 V2000
    0.0000    0.0000    0.0000 C   0  0  0  0  0  0  0  0  0  0  0  0
    1.5400    0.0000    0.0000 C   0  0  0  0  0  0  0  0  0  0  0  0
   -0.5133    0.0000   -1.4519 C   0  0  0  0  0  0  0  0  0  0  0  0
   -0.5133   -1.2574    0.7260 C   0  0  0  0  0  0  0  0  0  0  0  0
   -0.5133    1.2574    0.7260 C   0  0  0  0  0  0  0  0  0  0  0  0
    1.9322    0.9755    0.2875 H   0  0  0  0  0  0  0  0  0  0  0  0
    1.9322   -0.2387   -0.9886 H   0  0  0  0  0  0  0  0  0  0  0  0
    1.9322   -0.7368    0.7010 H   0  0  0  0  0  0  0  0  0  0  0  0
   -1.5446    0.3492   -1.5033 H   0  0  0  0  0  0  0  0  0  0  0  0
   -0.4790   -1.0018   -1.8801 H   0  0  0  0  0  0  0  0  0  0  0  0
    0.0913    0.6526   -2.0817 H   0  0  0  0  0  0  0  0  0  0  0  0
   -1.2763   -1.7663    0.1370 H   0  0  0  0  0  0  0  0  0  0  0  0
   -0.9522   -1.0018    1.6904 H   0  0  0  0  0  0  0  0  0  0  0  0
    0.2963   -1.9648    0.9052 H   0  0  0  0  0  0  0  0  0  0  0  0
   -1.3652    1.6920    0.2029 H   0  0  0  0  0  0  0  0  0  0  0  0
    0.2638    2.0192    0.7880 H   0  0  0  0  0  0  0  0  0  0  0  0
   -0.8308    1.0217    1.7417 H   0  0  0  0  0  0  0  0  0  0  0  0
  1  4  1  0  0  0  0
  1  5  1  0  0  0  0
  2  1  1  0  0  0  0
  2  6  1  0  0  0  0
  2  8  1  0  0  0  0
  3  1  1  0  0  0  0
  4 14  1  0  0  0  0
  4 13  1  0  0  0  0
  5 16  1  0  0  0  0
  5 17  1  0  0  0  0
  7  2  1  0  0  0  0
  9  3  1  0  0  0  0
 10  3  1  0  0  0  0
 11  3  1  0  0  0  0
 12  4  1  0  0  0  0
 15  5  1  0  0  0  0
M  END
