
 OpenBabel02272515123D

 44 43  0  0  0  0  0  0  0  0999 V2000
    0.0000    0.0000    0.0000 C   0  0  0  0  0  0  0  0  0  0  0  0
    1.6200    0.0000    0.0000 C   0  0  0  0  0  0  0  0  0  0  0  0
   -0.8100    0.0000   -1.4030 C   0  0  0  0  0  0  0  0  0  0  0  0
    2.4300   -1.1174   -0.8483 C   0  0  0  0  0  0  0  0  0  0  0  0
   -0.4949   -1.1797    0.8573 C   0  0  0  0  0  0  0  0  0  0  0  0
   -0.4949    1.1797    0.8573 C   0  0  0  0  0  0  0  0  0  0  0  0
    2.1149    1.3961   -0.4213 C   0  0  0  0  0  0  0  0  0  0  0  0
    2.1149   -0.0305    1.4580 C   0  0  0  0  0  0  0  0  0  0  0  0
   -0.7019   -1.3577   -2.1217 C   0  0  0  0  0  0  0  0  0  0  0  0
   -2.3086    0.2865   -1.1941 C   0  0  0  0  0  0  0  0  0  0  0  0
   -0.2721    1.0712   -2.3699 C   0  0  0  0  0  0  0  0  0  0  0  0
    1.4748   -2.0685   -1.5931 C   0  0  0  0  0  0  0  0  0  0  0  0
    3.3476   -0.4744   -1.9048 C   0  0  0  0  0  0  0  0  0  0  0  0
    3.3203   -1.9857    0.0601 C   0  0  0  0  0  0  0  0  0  0  0  0
    0.2142   -1.4119    1.6518 H   0  0  0  0  0  0  0  0  0  0  0  0
   -1.4538   -0.9513    1.3226 H   0  0  0  0  0  0  0  0  0  0  0  0
   -0.6235   -2.0773    0.2524 H   0  0  0  0  0  0  0  0  0  0  0  0
   -0.8467    0.8370    1.8304 H   0  0  0  0  0  0  0  0  0  0  0  0
    0.3026    1.9030    1.0269 H   0  0  0  0  0  0  0  0  0  0  0  0
   -1.3190    1.7005    0.3695 H   0  0  0  0  0  0  0  0  0  0  0  0
    2.5524    1.9285    0.4233 H   0  0  0  0  0  0  0  0  0  0  0  0
    2.8745    1.3246   -1.1997 H   0  0  0  0  0  0  0  0  0  0  0  0
    1.2961    2.0020   -0.8093 H   0  0  0  0  0  0  0  0  0  0  0  0
    1.2998    0.1705    2.1532 H   0  0  0  0  0  0  0  0  0  0  0  0
    2.5348   -1.0045    1.7094 H   0  0  0  0  0  0  0  0  0  0  0  0
    2.8883    0.7191    1.6254 H   0  0  0  0  0  0  0  0  0  0  0  0
   -1.1849   -1.3240   -3.0983 H   0  0  0  0  0  0  0  0  0  0  0  0
    0.3401   -1.6386   -2.2748 H   0  0  0  0  0  0  0  0  0  0  0  0
   -1.1783   -2.1478   -1.5413 H   0  0  0  0  0  0  0  0  0  0  0  0
   -2.5431    1.3282   -1.4132 H   0  0  0  0  0  0  0  0  0  0  0  0
   -2.9216   -0.3371   -1.8449 H   0  0  0  0  0  0  0  0  0  0  0  0
   -2.6063    0.0873   -0.1646 H   0  0  0  0  0  0  0  0  0  0  0  0
   -0.1933    0.6799   -3.3842 H   0  0  0  0  0  0  0  0  0  0  0  0
   -0.9298    1.9400   -2.3979 H   0  0  0  0  0  0  0  0  0  0  0  0
    0.7177    1.4121   -2.0663 H   0  0  0  0  0  0  0  0  0  0  0  0
    0.6717   -2.4089   -0.9394 H   0  0  0  0  0  0  0  0  0  0  0  0
    1.0192   -1.5741   -2.4511 H   0  0  0  0  0  0  0  0  0  0  0  0
    2.0036   -2.9491   -1.9578 H   0  0  0  0  0  0  0  0  0  0  0  0
    2.9129    0.4466   -2.2934 H   0  0  0  0  0  0  0  0  0  0  0  0
    4.3220   -0.2304   -1.4817 H   0  0  0  0  0  0  0  0  0  0  0  0
    3.5088   -1.1479   -2.7465 H   0  0  0  0  0  0  0  0  0  0  0  0
    4.1119   -2.4689   -0.5127 H   0  0  0  0  0  0  0  0  0  0  0  0
    3.7910   -1.3848    0.8381 H   0  0  0  0  0  0  0  0  0  0  0  0
    2.7381   -2.7670    0.5488 H   0  0  0  0  0  0  0  0  0  0  0  0
  1  2  1  0  0  0  0
  1  3  1  0  0  0  0
  2  4  1  0  0  0  0
  1  5  1  0  0  0  0
  1  6  1  0  0  0  0
  2  7  1  0  0  0  0
  2  8  1  0  0  0  0
  3  9  1  0  0  0  0
  3 10  1  0  0  0  0
  3 11  1  0  0  0  0
  4 12  1  0  0  0  0
  4 13  1  0  0  0  0
  4 14  1  0  0  0  0
  5 15  1  0  0  0  0
  5 16  1  0  0  0  0
  5 17  1  0  0  0  0
  6 18  1  0  0  0  0
  6 19  1  0  0  0  0
  6 20  1  0  0  0  0
  7 21  1  0  0  0  0
  7 22  1  0  0  0  0
  7 23  1  0  0  0  0
  8 24  1  0  0  0  0
  8 25  1  0  0  0  0
  8 26  1  0  0  0  0
  9 27  1  0  0  0  0
  9 28  1  0  0  0  0
  9 29  1  0  0  0  0
 10 30  1  0  0  0  0
 10 31  1  0  0  0  0
 10 32  1  0  0  0  0
 11 33  1  0  0  0  0
 11 34  1  0  0  0  0
 11 35  1  0  0  0  0
 12 36  1  0  0  0  0
 12 37  1  0  0  0  0
 12 38  1  0  0  0  0
 13 39  1  0  0  0  0
 13 40  1  0  0  0  0
 13 41  1  0  0  0  0
 14 42  1  0  0  0  0
 14 43  1  0  0  0  0
 14 44  1  0  0  0  0
M  END
