
 OpenBabel02272518403D

 11 10  0  0  0  0  0  0  0  0999 V2000
    0.0000    0.0000    0.0000 C   0  0  0  0  0  0  0  0  0  0  0  0
    1.5400    0.0000    0.0000 C   0  0  0  0  0  0  0  0  0  0  0  0
   -0.5684    0.0000   -1.4313 C   0  0  0  0  0  0  0  0  0  0  0  0
   -0.3922   -0.8807    0.5085 H   0  0  0  0  0  0  0  0  0  0  0  0
   -0.3278    0.8807    0.5522 H   0  0  0  0  0  0  0  0  0  0  0  0
    1.9322   -1.0090   -0.1271 H   0  0  0  0  0  0  0  0  0  0  0  0
    1.9322    0.6146   -0.8103 H   0  0  0  0  0  0  0  0  0  0  0  0
    1.9322    0.3944    0.9374 H   0  0  0  0  0  0  0  0  0  0  0  0
   -1.5977    0.3585   -1.4445 H   0  0  0  0  0  0  0  0  0  0  0  0
    0.0176    0.6450   -2.0860 H   0  0  0  0  0  0  0  0  0  0  0  0
   -0.5595   -1.0034   -1.8568 H   0  0  0  0  0  0  0  0  0  0  0  0
  1  2  1  0  0  0  0
  1  3  1  0  0  0  0
  1  4  1  0  0  0  0
  1  5  1  0  0  0  0
  2  6  1  0  0  0  0
  2  7  1  0  0  0  0
  2  8  1  0  0  0  0
  3  9  1  0  0  0  0
  3 10  1  0  0  0  0
  3 11  1  0  0  0  0
M  END
