
 OpenBabel02272513593D

 29 28  0  0  0  0  0  0  0  0999 V2000
    0.0000    0.0000    0.0000 C   0  0  0  0  0  0  0  0  0  0  0  0
    1.6200    0.0000    0.0000 C   0  0  0  0  0  0  0  0  0  0  0  0
   -0.8100    0.0000   -1.4030 C   0  0  0  0  0  0  0  0  0  0  0  0
    2.1884    0.9320    1.0862 C   0  0  0  0  0  0  0  0  0  0  0  0
    2.1884   -1.4067    0.2641 C   0  0  0  0  0  0  0  0  0  0  0  0
    2.1884    0.4747   -1.3503 C   0  0  0  0  0  0  0  0  0  0  0  0
   -2.2811    0.4125   -1.2100 C   0  0  0  0  0  0  0  0  0  0  0  0
   -0.1914    0.9807   -2.4165 C   0  0  0  0  0  0  0  0  0  0  0  0
   -0.8101   -1.3932   -2.0592 C   0  0  0  0  0  0  0  0  0  0  0  0
   -0.3922   -0.8807    0.5085 H   0  0  0  0  0  0  0  0  0  0  0  0
   -0.3922    0.8807    0.5085 H   0  0  0  0  0  0  0  0  0  0  0  0
    2.4348    1.9104    0.6738 H   0  0  0  0  0  0  0  0  0  0  0  0
    1.7246    0.7363    2.0530 H   0  0  0  0  0  0  0  0  0  0  0  0
    3.2638    0.7936    1.1983 H   0  0  0  0  0  0  0  0  0  0  0  0
    2.0445   -2.0563   -0.5993 H   0  0  0  0  0  0  0  0  0  0  0  0
    3.2570   -1.3647    0.4751 H   0  0  0  0  0  0  0  0  0  0  0  0
    1.6981   -1.8739    1.1181 H   0  0  0  0  0  0  0  0  0  0  0  0
    2.5685   -0.3647   -1.9326 H   0  0  0  0  0  0  0  0  0  0  0  0
    1.4227    0.9732   -1.9446 H   0  0  0  0  0  0  0  0  0  0  0  0
    3.0083    1.1781   -1.2052 H   0  0  0  0  0  0  0  0  0  0  0  0
   -2.7925   -0.2663   -0.5274 H   0  0  0  0  0  0  0  0  0  0  0  0
   -2.3554    1.4186   -0.7973 H   0  0  0  0  0  0  0  0  0  0  0  0
   -2.8195    0.4003   -2.1577 H   0  0  0  0  0  0  0  0  0  0  0  0
   -0.7624    1.9079   -2.4638 H   0  0  0  0  0  0  0  0  0  0  0  0
    0.8329    1.2336   -2.1425 H   0  0  0  0  0  0  0  0  0  0  0  0
   -0.1719    0.5497   -3.4175 H   0  0  0  0  0  0  0  0  0  0  0  0
    0.1144   -1.5675   -2.6097 H   0  0  0  0  0  0  0  0  0  0  0  0
   -0.9055   -2.1795   -1.3104 H   0  0  0  0  0  0  0  0  0  0  0  0
   -1.6393   -1.4970   -2.7590 H   0  0  0  0  0  0  0  0  0  0  0  0
  1  2  1  0  0  0  0
  1  3  1  0  0  0  0
  1 10  1  0  0  0  0
  1 11  1  0  0  0  0
  2  4  1  0  0  0  0
  2  5  1  0  0  0  0
  2  6  1  0  0  0  0
  3  7  1  0  0  0  0
  3  8  1  0  0  0  0
  3  9  1  0  0  0  0
  4 13  1  0  0  0  0
  4 14  1  0  0  0  0
  4 12  1  0  0  0  0
  5 15  1  0  0  0  0
  5 16  1  0  0  0  0
  5 17  1  0  0  0  0
  6 20  1  0  0  0  0
  6 18  1  0  0  0  0
  6 19  1  0  0  0  0
  7 21  1  0  0  0  0
  7 22  1  0  0  0  0
  7 23  1  0  0  0  0
  8 24  1  0  0  0  0
  8 25  1  0  0  0  0
  8 26  1  0  0  0  0
  9 27  1  0  0  0  0
  9 28  1  0  0  0  0
  9 29  1  0  0  0  0
M  END
